
  CML DOM 08010913292D

 66 70  0  0  0  0  0  0  0  0999 V2000
   -6.4952   -0.7500    0.0000 H   0  0  0  0  0  0  0  0  0  0  0  0
   -0.4822    4.5460    0.0000 H   0  0  0  0  0  0  0  0  0  0  0  0
   -3.8971   -0.7500    0.0000 C   0  0  0  0  0  0  0  0  0  0  0  0
    0.7131   -1.3196    0.0000 C   0  0  0  0  0  0  0  0  0  0  0  0
   -3.8971    3.7500    0.0000 H   0  0  0  0  0  0  0  0  0  0  0  0
    2.5033    4.5796    0.0000 H   0  0  0  0  0  0  0  0  0  0  0  0
    0.0000    1.5000    0.0000 C   0  0  0  0  0  0  0  0  0  0  0  0
    1.9859    1.0020    0.0000 N   0  4  0  0  0  0  0  0  0  0  0  0
   -3.8971    2.2500    0.0000 C   0  0  0  0  0  0  0  0  0  0  0  0
   -6.4952    2.2500    0.0000 Br  0  0  0  0  0  0  0  0  0  0  0  0
    0.5617    3.4688    0.0000 C   0  0  0  0  0  0  0  0  0  0  0  0
    3.4641    3.5000    0.0000 S   0  4  0  0  0  0  0  0  0  0  0  0
    2.2125   -1.3618    0.0000 H   0  0  0  0  0  0  0  0  0  0  0  0
    0.5130    2.9095    0.0000 C   0  0  0  0  0  0  0  0  0  0  0  0
    1.9902    1.6700    0.0000 H   0  0  0  0  0  0  0  0  0  0  0  0
   -2.5981    1.5000    0.0000 C   0  0  0  0  0  0  0  0  0  0  0  0
   -5.1962   -0.0000    0.0000 C   0  0  0  0  0  0  0  0  0  0  0  0
   -3.8971   -2.2500    0.0000 H   0  0  0  0  0  0  0  0  0  0  0  0
    1.9902    3.1700    0.0000 C   0  0  0  0  0  0  0  0  0  0  0  0
   -0.7103   -1.7928    0.0000 H   0  0  0  0  0  0  0  0  0  0  0  0
   -2.5981   -0.0000    0.0000 C   0  0  0  0  0  0  0  0  0  0  0  0
    1.4225    4.6972    0.0000 H   0  0  0  0  0  0  0  0  0  0  0  0
   -1.2990    2.2500    0.0000 C   0  0  0  0  0  0  0  0  0  0  0  0
    2.1651    2.7500    0.0000 C   0  0  0  0  0  0  0  0  0  0  0  0
   -2.0853    3.5274    0.0000 H   0  0  0  0  0  0  0  0  0  0  0  0
   -1.2990   -0.7500    0.0000 O   0  0  0  0  0  0  0  0  0  0  0  0
    3.2215    0.1516    0.0000 H   0  0  0  0  0  0  0  0  0  0  0  0
   -0.4512    4.0586    0.0000 O   0  0  0  0  0  0  0  0  0  0  0  0
    1.4772    1.2395    0.0000 H   0  0  0  0  0  0  0  0  0  0  0  0
    0.9319   -2.8036    0.0000 H   0  0  0  0  0  0  0  0  0  0  0  0
    3.4675    2.9095    0.0000 H   0  0  0  0  0  0  0  0  0  0  0  0
    0.0000    0.0000    0.0000 C   0  0  0  0  0  0  0  0  0  0  0  0
   -5.1962    1.5000    0.0000 C   0  0  0  0  0  0  0  0  0  0  0  0
   -4.0206    4.6972    0.0000 H   0  0  0  0  0  0  0  0  0  0  0  0
    3.8971    2.2500    0.0000 Br  0  0  0  0  0  0  0  0  0  0  0  0
   -3.1111    2.9095    0.0000 C   0  0  0  0  0  0  0  0  0  0  0  0
    0.0000    1.5000    0.0000 C   0  0  0  0  0  0  0  0  0  0  0  0
   -1.2990   -0.7500    0.0000 O   0  0  0  0  0  0  0  0  0  0  0  0
   -4.5839    1.0020    0.0000 N   0  4  0  0  0  0  0  0  0  0  0  0
   -0.5128    3.5274    0.0000 H   0  0  0  0  0  0  0  0  0  0  0  0
    1.2990   -2.2500    0.0000 H   0  0  0  0  0  0  0  0  0  0  0  0
   -5.8195    0.1516    0.0000 H   0  0  0  0  0  0  0  0  0  0  0  0
   -5.1013    4.5796    0.0000 H   0  0  0  0  0  0  0  0  0  0  0  0
   -6.0655    2.9095    0.0000 H   0  0  0  0  0  0  0  0  0  0  0  0
    1.2990    2.2500    0.0000 C   0  0  0  0  0  0  0  0  0  0  0  0
   -4.0753    1.2395    0.0000 H   0  0  0  0  0  0  0  0  0  0  0  0
   -4.5883    1.6700    0.0000 H   0  0  0  0  0  0  0  0  0  0  0  0
   -3.1598    3.4688    0.0000 C   0  0  0  0  0  0  0  0  0  0  0  0
    3.8971   -0.7500    0.0000 H   0  0  0  0  0  0  0  0  0  0  0  0
   -4.5883    3.1700    0.0000 C   0  0  0  0  0  0  0  0  0  0  0  0
    2.5981    1.5000    0.0000 C   0  0  0  0  0  0  0  0  0  0  0  0
    2.5981   -0.0000    0.0000 C   0  0  0  0  0  0  0  0  0  0  0  0
    1.2990   -0.7500    0.0000 C   0  0  0  0  0  0  0  0  0  0  0  0
   -4.8106   -1.3618    0.0000 H   0  0  0  0  0  0  0  0  0  0  0  0
   -3.5300   -2.8036    0.0000 H   0  0  0  0  0  0  0  0  0  0  0  0
   -4.7631    2.7500    0.0000 C   0  0  0  0  0  0  0  0  0  0  0  0
   -1.2990    2.2500    0.0000 C   0  0  0  0  0  0  0  0  0  0  0  0
   -2.1159    4.5460    0.0000 H   0  0  0  0  0  0  0  0  0  0  0  0
   -2.5981   -0.0000    0.0000 C   0  0  0  0  0  0  0  0  0  0  0  0
   -6.0622    3.5000    0.0000 S   0  4  0  0  0  0  0  0  0  0  0  0
   -3.3112   -1.3196    0.0000 C   0  0  0  0  0  0  0  0  0  0  0  0
    0.0000    0.0000    0.0000 C   0  0  0  0  0  0  0  0  0  0  0  0
    1.2990    3.7500    0.0000 H   0  0  0  0  0  0  0  0  0  0  0  0
   -2.5981    1.5000    0.0000 C   0  0  0  0  0  0  0  0  0  0  0  0
   -1.8878   -1.7928    0.0000 H   0  0  0  0  0  0  0  0  0  0  0  0
   -2.1469    4.0586    0.0000 O   0  0  0  0  0  0  0  0  0  0  0  0
 26 21  1  0  0  0  0
  7 29  1  6  0  0  0
  4 20  1  0  0  0  0
  5  9  1  0  0  0  0
 27  8  1  0  0  0  0
 19  6  1  0  0  0  0
 14 19  1  0  0  0  0
 16  9  1  0  0  0  0
 17  3  2  0  0  0  0
 32  8  1  0  0  0  0
 24  8  1  0  0  0  0
 14 28  2  0  0  0  0
 33 10  1  0  0  0  0
 15 19  1  0  0  0  0
 18  3  1  0  0  0  0
 30  4  1  0  0  0  0
 21  3  1  0  0  0  0
 22 11  1  0  0  0  0
 19 31  1  0  0  0  0
 17 33  1  0  0  0  0
 12 24  2  0  0  0  0
 17  1  1  0  0  0  0
 23 11  1  0  0  0  0
  7 14  1  0  0  0  0
 24 11  1  0  0  0  0
  4 13  1  0  0  0  0
  9 33  2  0  0  0  0
  2 11  1  0  0  0  0
 21 16  2  0  0  0  0
 32  4  1  1  0  0  0
 23 16  1  0  0  0  0
 23 25  1  1  0  0  0
 32 26  1  0  0  0  0
 32  7  1  0  0  0  0
 23  7  1  0  0  0  0
 45 51  1  0  0  0  0
 55 61  1  0  0  0  0
 35 51  1  0  0  0  0
 45 37  2  0  0  0  0
 39 42  1  0  0  0  0
 43 50  1  0  0  0  0
 62 37  1  0  0  0  0
 52 51  2  0  0  0  0
 41 53  1  0  0  0  0
 52 49  1  0  0  0  0
 56 39  1  0  0  0  0
 62 53  2  0  0  0  0
 60 56  2  0  0  0  0
 59 39  1  0  0  0  0
 48 58  1  0  0  0  0
 54 61  1  0  0  0  0
 62 38  1  0  0  0  0
 50 36  1  0  0  0  0
 50 44  1  0  0  0  0
 52 53  1  0  0  0  0
 48 34  1  0  0  0  0
 66 36  2  0  0  0  0
 48 56  1  0  0  0  0
 50 47  1  0  0  0  0
 59 61  1  1  0  0  0
 61 65  1  0  0  0  0
 59 38  1  0  0  0  0
 45 63  1  0  0  0  0
 64 36  1  0  0  0  0
 64 59  1  0  0  0  0
 57 40  1  1  0  0  0
 57 37  1  0  0  0  0
 57 64  1  0  0  0  0
 57 48  1  0  0  0  0
 64 46  1  6  0  0  0
M  END
> <PUBCHEM_EXT_DATASOURCE_REGID>
bg2221sup1_I.complete.cml

> <PUBCHEM_EXT_DATASOURCE_URL>
http://wwmm.ch.cam.ac.uk/crystaleye

> <PUBCHEM_EXT_SUBSTANCE_URL>
http://wwmm.ch.cam.ac.uk/crystaleye/summary/acta/e/2009/03-00/data/bg2221/bg2221sup1_I/bg2221sup1_I.cif.summary.html

$$$$
