
  CML DOM 08010913292D

108108  0  0  0  0  0  0  0  0999 V2000
    1.2990    2.2500    0.0000 H   0  0  0  0  0  0  0  0  0  0  0  0
    0.0000    1.5000    0.0000 C   0  0  0  0  0  0  0  0  0  0  0  0
    1.2990   -0.7500    0.0000 N   0  0  0  0  0  0  0  0  0  0  0  0
   -6.4952    2.2500    0.0000 H   0  0  0  0  0  0  0  0  0  0  0  0
   -5.1962    1.5000    0.0000 C   0  0  0  0  0  0  0  0  0  0  0  0
   -3.4460    4.8086    0.0000 H   0  0  0  0  0  0  0  0  0  0  0  0
   -3.8971   -0.7500    0.0000 S   0  0  0  0  0  0  0  0  0  0  0  0
   -2.5981   -0.0000    0.0000 C   0  0  0  0  0  0  0  0  0  0  0  0
   -2.5981    1.5000    0.0000 C   0  0  0  0  0  0  0  0  0  0  0  0
   -1.6339    4.1491    0.0000 H   0  0  0  0  0  0  0  0  0  0  0  0
   -5.1962   -3.0000    0.0000 O   0  5  0  0  0  0  0  0  0  0  0  0
   -1.2990   -0.7500    0.0000 C   0  0  0  0  0  0  0  0  0  0  0  0
   -4.2320    0.3509    0.0000 H   0  0  0  0  0  0  0  0  0  0  0  0
    1.2990   -2.2500    0.0000 H   0  0  0  0  0  0  0  0  0  0  0  0
    0.0000    0.0000    0.0000 C   0  0  0  0  0  0  0  0  0  0  0  0
   -4.8613    3.3991    0.0000 H   0  0  0  0  0  0  0  0  0  0  0  0
   -1.2990    2.2500    0.0000 C   0  0  0  0  0  0  0  0  0  0  0  0
   -2.9329    3.3991    0.0000 C   0  0  0  0  0  0  0  0  0  0  0  0
   -6.1603    0.3509    0.0000 H   0  0  0  0  0  0  0  0  0  0  0  0
   -1.2990    3.7500    0.0000 H   0  0  0  0  0  0  0  0  0  0  0  0
   -3.3841   -3.6595    0.0000 O   0  0  0  0  0  0  0  0  0  0  0  0
   -1.2990   -2.2500    0.0000 H   0  0  0  0  0  0  0  0  0  0  0  0
   -3.8971    2.2500    0.0000 N   0  3  0  0  0  0  0  0  0  0  0  0
    2.5981   -0.0000    0.0000 H   0  0  0  0  0  0  0  0  0  0  0  0
   -1.9688    2.2500    0.0000 H   0  0  0  0  0  0  0  0  0  0  0  0
   -3.8971   -2.2500    0.0000 S   0  0  0  0  0  0  0  0  0  0  0  0
   -2.4199   -1.9895    0.0000 O   0  0  0  0  0  0  0  0  0  0  0  0
    2.5981    4.5000    0.0000 H   0  0  0  0  0  0  0  0  0  0  0  0
    1.2990    3.7500    0.0000 C   0  0  0  0  0  0  0  0  0  0  0  0
   -1.2990    3.7500    0.0000 S   0  0  0  0  0  0  0  0  0  0  0  0
   -2.5981    6.0000    0.0000 O   0  0  0  0  0  0  0  0  0  0  0  0
    0.0000    1.5000    0.0000 C   0  0  0  0  0  0  0  0  0  0  0  0
    1.8121    0.8405    0.0000 H   0  0  0  0  0  0  0  0  0  0  0  0
    0.7860    5.1595    0.0000 H   0  0  0  0  0  0  0  0  0  0  0  0
   -0.1782    3.4895    0.0000 H   0  0  0  0  0  0  0  0  0  0  0  0
    3.2893    3.9200    0.0000 H   0  0  0  0  0  0  0  0  0  0  0  0
   -3.8971   -2.2500    0.0000 H   0  0  0  0  0  0  0  0  0  0  0  0
   -3.1111    3.0905    0.0000 O   0  5  0  0  0  0  0  0  0  0  0  0
    2.7762    2.5105    0.0000 C   0  0  0  0  0  0  0  0  0  0  0  0
   -1.2990   -2.2500    0.0000 H   0  0  0  0  0  0  0  0  0  0  0  0
   -5.1962   -0.0000    0.0000 H   0  0  0  0  0  0  0  0  0  0  0  0
    1.2990   -0.7500    0.0000 H   0  0  0  0  0  0  0  0  0  0  0  0
    1.2990    2.2500    0.0000 N   0  3  0  0  0  0  0  0  0  0  0  0
   -4.0753    4.7605    0.0000 O   0  0  0  0  0  0  0  0  0  0  0  0
   -3.8971    2.2500    0.0000 H   0  0  0  0  0  0  0  0  0  0  0  0
   -3.8971   -0.7500    0.0000 N   0  0  0  0  0  0  0  0  0  0  0  0
    0.0000    0.0000    0.0000 C   0  0  0  0  0  0  0  0  0  0  0  0
   -1.2990   -0.7500    0.0000 C   0  0  0  0  0  0  0  0  0  0  0  0
   -1.2990    2.2500    0.0000 C   0  0  0  0  0  0  0  0  0  0  0  0
   -2.5981    4.5000    0.0000 S   0  0  0  0  0  0  0  0  0  0  0  0
   -2.5981   -0.0000    0.0000 C   0  0  0  0  0  0  0  0  0  0  0  0
    4.2535    2.2500    0.0000 H   0  0  0  0  0  0  0  0  0  0  0  0
   -2.5981    1.5000    0.0000 C   0  0  0  0  0  0  0  0  0  0  0  0
    2.7762    1.0105    0.0000 H   0  0  0  0  0  0  0  0  0  0  0  0
   -2.5981   -3.0000    0.0000 H   0  0  0  0  0  0  0  0  0  0  0  0
    0.0000    1.5000    0.0000 C   0  0  0  0  0  0  0  0  0  0  0  0
   -2.5981    1.5000    0.0000 C   0  0  0  0  0  0  0  0  0  0  0  0
   -0.0000   -3.0000    0.0000 H   0  0  0  0  0  0  0  0  0  0  0  0
   -1.2990    3.7500    0.0000 N   0  3  0  0  0  0  0  0  0  0  0  0
    2.5981    1.5000    0.0000 S   0  0  0  0  0  0  0  0  0  0  0  0
   -2.5981    6.0000    0.0000 H   0  0  0  0  0  0  0  0  0  0  0  0
   -3.8971    2.2500    0.0000 H   0  0  0  0  0  0  0  0  0  0  0  0
    3.8971    2.2500    0.0000 O   0  5  0  0  0  0  0  0  0  0  0  0
   -2.5981   -0.0000    0.0000 C   0  0  0  0  0  0  0  0  0  0  0  0
   -1.7502    6.3086    0.0000 H   0  0  0  0  0  0  0  0  0  0  0  0
    1.6339    0.3509    0.0000 O   0  0  0  0  0  0  0  0  0  0  0  0
    1.2990   -0.7500    0.0000 H   0  0  0  0  0  0  0  0  0  0  0  0
   -2.5981    4.5000    0.0000 C   0  0  0  0  0  0  0  0  0  0  0  0
   -1.2990   -2.2500    0.0000 N   0  0  0  0  0  0  0  0  0  0  0  0
   -1.2990   -0.7500    0.0000 C   0  0  0  0  0  0  0  0  0  0  0  0
    0.0000    0.0000    0.0000 C   0  0  0  0  0  0  0  0  0  0  0  0
   -3.1111    3.0905    0.0000 H   0  0  0  0  0  0  0  0  0  0  0  0
   -1.2990    2.2500    0.0000 C   0  0  0  0  0  0  0  0  0  0  0  0
    0.5130    4.4095    0.0000 H   0  0  0  0  0  0  0  0  0  0  0  0
    1.2990    2.2500    0.0000 S   0  0  0  0  0  0  0  0  0  0  0  0
    0.1782    6.3086    0.0000 H   0  0  0  0  0  0  0  0  0  0  0  0
   -3.8971   -0.7500    0.0000 H   0  0  0  0  0  0  0  0  0  0  0  0
   -0.7860    5.1595    0.0000 C   0  0  0  0  0  0  0  0  0  0  0  0
   -4.0753    4.7605    0.0000 H   0  0  0  0  0  0  0  0  0  0  0  0
    3.5623    0.3509    0.0000 O   0  0  0  0  0  0  0  0  0  0  0  0
    0.1782    3.4895    0.0000 H   0  0  0  0  0  0  0  0  0  0  0  0
    0.0000    1.5000    0.0000 C   0  0  0  0  0  0  0  0  0  0  0  0
   -1.2990   -0.7500    0.0000 C   0  0  0  0  0  0  0  0  0  0  0  0
   -5.1962   -3.0000    0.0000 O   0  0  0  0  0  0  0  0  0  0  0  0
   -1.2990    3.7500    0.0000 N   0  0  0  0  0  0  0  0  0  0  0  0
    0.0000    0.0000    0.0000 C   0  0  0  0  0  0  0  0  0  0  0  0
   -1.8121   -3.6595    0.0000 H   0  0  0  0  0  0  0  0  0  0  0  0
    1.2990    2.2500    0.0000 H   0  0  0  0  0  0  0  0  0  0  0  0
    0.0000    4.5000    0.0000 H   0  0  0  0  0  0  0  0  0  0  0  0
   -0.0000   -4.5000    0.0000 H   0  0  0  0  0  0  0  0  0  0  0  0
   -3.8971    2.2500    0.0000 H   0  0  0  0  0  0  0  0  0  0  0  0
   -2.7762   -1.9895    0.0000 C   0  0  0  0  0  0  0  0  0  0  0  0
    1.4772   -3.2605    0.0000 H   0  0  0  0  0  0  0  0  0  0  0  0
   -1.2990    2.2500    0.0000 C   0  0  0  0  0  0  0  0  0  0  0  0
   -2.5981    4.5000    0.0000 H   0  0  0  0  0  0  0  0  0  0  0  0
   -1.2990   -2.2500    0.0000 N   0  3  0  0  0  0  0  0  0  0  0  0
   -3.7404   -3.1386    0.0000 H   0  0  0  0  0  0  0  0  0  0  0  0
   -2.2632   -0.5800    0.0000 H   0  0  0  0  0  0  0  0  0  0  0  0
    0.5130   -1.5905    0.0000 H   0  0  0  0  0  0  0  0  0  0  0  0
    1.2990   -0.7500    0.0000 H   0  0  0  0  0  0  0  0  0  0  0  0
   -2.4199   -1.9895    0.0000 O   0  5  0  0  0  0  0  0  0  0  0  0
   -4.0753   -1.2395    0.0000 H   0  0  0  0  0  0  0  0  0  0  0  0
   -0.0000   -3.0000    0.0000 C   0  0  0  0  0  0  0  0  0  0  0  0
   -3.8971   -0.7500    0.0000 S   0  0  0  0  0  0  0  0  0  0  0  0
   -2.5981   -0.0000    0.0000 C   0  0  0  0  0  0  0  0  0  0  0  0
   -3.3841   -3.6595    0.0000 O   0  0  0  0  0  0  0  0  0  0  0  0
   -2.5981    1.5000    0.0000 C   0  0  0  0  0  0  0  0  0  0  0  0
   -3.8971   -2.2500    0.0000 S   0  0  0  0  0  0  0  0  0  0  0  0
  4  5  1  0  0  0  0
 21 26  2  0  0  0  0
 18  6  1  0  0  0  0
 24  3  1  0  0  0  0
 19  5  1  0  0  0  0
 15  2  1  0  0  0  0
 17 20  1  0  0  0  0
 22 12  1  0  0  0  0
 18 25  1  0  0  0  0
 14  3  1  0  0  0  0
  8  9  2  0  0  0  0
 23  5  1  0  0  0  0
 18 23  1  0  0  0  0
 16 23  1  0  0  0  0
  8  7  1  0  0  0  0
 15 12  2  0  0  0  0
  7 26  1  0  0  0  0
 15  3  1  0  0  0  0
 17  9  1  0  0  0  0
  2  1  1  0  0  0  0
 27 26  2  0  0  0  0
 12  8  1  0  0  0  0
  2 17  2  0  0  0  0
 11 26  1  0  0  0  0
 13  5  1  0  0  0  0
 23  9  1  0  0  0  0
 18 10  1  0  0  0  0
 33 43  1  0  0  0  0
 36 39  1  0  0  0  0
 40 48  1  0  0  0  0
 50 44  2  0  0  0  0
 47 32  1  0  0  0  0
 43 39  1  0  0  0  0
 46 51  1  0  0  0  0
 46 41  1  0  0  0  0
 43 32  1  0  0  0  0
 31 50  2  0  0  0  0
 47 42  1  0  0  0  0
 50 30  1  0  0  0  0
 37 46  1  0  0  0  0
 34 29  1  0  0  0  0
 49 30  1  0  0  0  0
 54 39  1  0  0  0  0
 35 29  1  0  0  0  0
 53 51  2  0  0  0  0
 43 29  1  0  0  0  0
 52 39  1  0  0  0  0
 49 32  2  0  0  0  0
 53 45  1  0  0  0  0
 49 53  1  0  0  0  0
 28 29  1  0  0  0  0
 48 51  1  0  0  0  0
 47 48  2  0  0  0  0
 50 38  1  0  0  0  0
 60 66  2  0  0  0  0
 57 73  2  0  0  0  0
 71 56  2  0  0  0  0
 56 73  1  0  0  0  0
 70 64  2  0  0  0  0
 59 73  1  0  0  0  0
 70 69  1  0  0  0  0
 68 59  1  0  0  0  0
 74 78  1  0  0  0  0
 57 64  1  0  0  0  0
 68 79  1  0  0  0  0
 68 61  1  0  0  0  0
 68 72  1  0  0  0  0
 70 71  1  0  0  0  0
 80 60  2  0  0  0  0
 78 65  1  0  0  0  0
 75 60  1  0  0  0  0
 75 56  1  0  0  0  0
 81 59  1  0  0  0  0
 62 57  1  0  0  0  0
 78 59  1  0  0  0  0
 69 58  1  0  0  0  0
 69 55  1  0  0  0  0
 71 67  1  0  0  0  0
 77 64  1  0  0  0  0
 60 63  1  0  0  0  0
 78 76  1  0  0  0  0
 84108  2  0  0  0  0
 97 92  1  0  0  0  0
105104  1  0  0  0  0
 86 82  2  0  0  0  0
107 94  2  0  0  0  0
 86100  1  0  0  0  0
105 83  2  0  0  0  0
104108  1  0  0  0  0
 88 82  1  0  0  0  0
 96 92  1  0  0  0  0
 96 83  1  0  0  0  0
 85 94  1  0  0  0  0
 85 95  1  0  0  0  0
 82 94  1  0  0  0  0
106108  2  0  0  0  0
 92 98  1  0  0  0  0
103 93  1  0  0  0  0
103 96  1  0  0  0  0
101108  1  0  0  0  0
 86 83  1  0  0  0  0
103 90  1  0  0  0  0
 89 85  1  0  0  0  0
103 99  1  0  0  0  0
102 92  1  0  0  0  0
105107  1  0  0  0  0
107 91  1  0  0  0  0
 87 96  1  0  0  0  0
M  CHG  8  11  -1  23   1  38  -1  43   1  59   1  63  -1  96   1 101  -1
M  END
> <PUBCHEM_EXT_DATASOURCE_REGID>
bg2255sup1_I.complete..cml

> <PUBCHEM_EXT_DATASOURCE_URL>
http://wwmm.ch.cam.ac.uk/crystaleye

> <PUBCHEM_EXT_SUBSTANCE_URL>
http://wwmm.ch.cam.ac.uk/crystaleye/summary/acta/e/2009/03-00/data/bg2255/bg2255sup1_I/bg2255sup1_I.cif.summary.html

$$$$
