
  CML DOM 08010913292D

 52 55  0  0  0  0  0  0  0  0999 V2000
    6.6948   -0.0587    0.0000 Cl  0  0  0  0  0  0  0  0  0  0  0  0
   -3.3573    3.7020    0.0000 O   0  0  0  0  0  0  0  0  0  0  0  0
   -2.7405   10.2112    0.0000 O   0  0  0  0  0  0  0  0  0  0  0  0
    0.0000    0.0000    0.0000 N   0  0  0  0  0  0  0  0  0  0  0  0
    0.0000    1.5000    0.0000 N   0  4  0  0  0  0  0  0  0  0  0  0
    4.1110   -0.3303    0.0000 N   0  0  0  0  0  0  0  0  0  0  0  0
   -0.8864    4.5048    0.0000 N   0  4  0  0  0  0  0  0  0  0  0  0
    0.5808    4.1930    0.0000 H   0  0  0  0  0  0  0  0  0  0  0  0
   -1.4266   -0.4635    0.0000 C   0  0  0  0  0  0  0  0  0  0  0  0
   -2.3083    0.7500    0.0000 C   0  0  0  0  0  0  0  0  0  0  0  0
   -3.8083    0.7500    0.0000 H   0  0  0  0  0  0  0  0  0  0  0  0
   -1.4266    1.9635    0.0000 C   0  0  0  0  0  0  0  0  0  0  0  0
   -1.8901   -1.8901    0.0000 C   0  0  0  0  0  0  0  0  0  0  0  0
   -3.3573   -2.2020    0.0000 C   0  0  0  0  0  0  0  0  0  0  0  0
   -4.3610   -1.0873    0.0000 H   0  0  0  0  0  0  0  0  0  0  0  0
   -3.8209   -3.6286    0.0000 C   0  0  0  0  0  0  0  0  0  0  0  0
   -5.2881   -3.9404    0.0000 H   0  0  0  0  0  0  0  0  0  0  0  0
   -2.8172   -4.7433    0.0000 C   0  0  0  0  0  0  0  0  0  0  0  0
   -3.2807   -6.1699    0.0000 H   0  0  0  0  0  0  0  0  0  0  0  0
   -1.3499   -4.4314    0.0000 C   0  0  0  0  0  0  0  0  0  0  0  0
   -0.3462   -5.5461    0.0000 H   0  0  0  0  0  0  0  0  0  0  0  0
   -0.8864   -3.0048    0.0000 C   0  0  0  0  0  0  0  0  0  0  0  0
    0.5808   -2.6930    0.0000 H   0  0  0  0  0  0  0  0  0  0  0  0
    1.2135    2.3817    0.0000 C   0  0  0  0  0  0  0  0  0  0  0  0
    2.0523    3.6252    0.0000 H   0  0  0  0  0  0  0  0  0  0  0  0
    0.1345    3.4237    0.0000 H   0  0  0  0  0  0  0  0  0  0  0  0
    2.5838    1.7716    0.0000 C   0  0  0  0  0  0  0  0  0  0  0  0
    3.7974    2.6533    0.0000 C   0  0  0  0  0  0  0  0  0  0  0  0
    3.6406    4.1450    0.0000 H   0  0  0  0  0  0  0  0  0  0  0  0
    5.1677    2.0431    0.0000 C   0  0  0  0  0  0  0  0  0  0  0  0
    6.3812    2.9248    0.0000 H   0  0  0  0  0  0  0  0  0  0  0  0
    5.3245    0.5514    0.0000 C   0  0  0  0  0  0  0  0  0  0  0  0
    2.7406    0.2798    0.0000 C   0  0  0  0  0  0  0  0  0  0  0  0
    1.5271   -0.6019    0.0000 H   0  0  0  0  0  0  0  0  0  0  0  0
   -1.8901    3.3901    0.0000 C   0  0  0  0  0  0  0  0  0  0  0  0
   -1.3499    5.9314    0.0000 C   0  0  0  0  0  0  0  0  0  0  0  0
   -0.3462    7.0461    0.0000 C   0  0  0  0  0  0  0  0  0  0  0  0
    1.1210    6.7343    0.0000 H   0  0  0  0  0  0  0  0  0  0  0  0
   -0.8098    8.4727    0.0000 C   0  0  0  0  0  0  0  0  0  0  0  0
    0.1939    9.5874    0.0000 H   0  0  0  0  0  0  0  0  0  0  0  0
   -2.2770    8.7846    0.0000 C   0  0  0  0  0  0  0  0  0  0  0  0
   -3.2807    7.6699    0.0000 C   0  0  0  0  0  0  0  0  0  0  0  0
   -4.7479    7.9817    0.0000 H   0  0  0  0  0  0  0  0  0  0  0  0
   -2.8172    6.2433    0.0000 C   0  0  0  0  0  0  0  0  0  0  0  0
   -3.8209    5.1286    0.0000 H   0  0  0  0  0  0  0  0  0  0  0  0
   -1.7368   11.3259    0.0000 C   0  0  0  0  0  0  0  0  0  0  0  0
   -0.8133   10.1439    0.0000 H   0  0  0  0  0  0  0  0  0  0  0  0
   -0.4124   12.0301    0.0000 H   0  0  0  0  0  0  0  0  0  0  0  0
   -2.2003   12.7525    0.0000 C   0  0  0  0  0  0  0  0  0  0  0  0
   -1.1966   13.8672    0.0000 H   0  0  0  0  0  0  0  0  0  0  0  0
   -3.1238   13.9345    0.0000 H   0  0  0  0  0  0  0  0  0  0  0  0
   -3.5248   12.0483    0.0000 H   0  0  0  0  0  0  0  0  0  0  0  0
  1 32  1  0  0  0  0
  2 35  2  0  0  0  0
  3 41  1  0  0  0  0
  3 46  1  0  0  0  0
  4  5  1  0  0  0  0
  4  9  2  0  0  0  0
  5 12  1  0  0  0  0
  5 24  1  0  0  0  0
  6 32  1  0  0  0  0
  6 33  2  0  0  0  0
  7  8  1  0  0  0  0
  7 35  1  0  0  0  0
  7 36  1  0  0  0  0
  9 10  1  0  0  0  0
  9 13  1  0  0  0  0
 10 11  1  0  0  0  0
 10 12  2  0  0  0  0
 12 35  1  0  0  0  0
 13 14  2  0  0  0  0
 13 22  1  0  0  0  0
 14 15  1  0  0  0  0
 14 16  1  0  0  0  0
 16 17  1  0  0  0  0
 16 18  2  0  0  0  0
 18 19  1  0  0  0  0
 18 20  1  0  0  0  0
 20 21  1  0  0  0  0
 20 22  2  0  0  0  0
 22 23  1  0  0  0  0
 24 25  1  0  0  0  0
 24 26  1  0  0  0  0
 24 27  1  0  0  0  0
 27 28  2  0  0  0  0
 27 33  1  0  0  0  0
 28 29  1  0  0  0  0
 28 30  1  0  0  0  0
 30 31  1  0  0  0  0
 30 32  2  0  0  0  0
 33 34  1  0  0  0  0
 36 37  2  0  0  0  0
 36 44  1  0  0  0  0
 37 38  1  0  0  0  0
 37 39  1  0  0  0  0
 39 40  1  0  0  0  0
 39 41  2  0  0  0  0
 41 42  1  0  0  0  0
 42 43  1  0  0  0  0
 42 44  2  0  0  0  0
 44 45  1  0  0  0  0
 46 47  1  0  0  0  0
 46 48  1  0  0  0  0
 46 49  1  0  0  0  0
 49 50  1  0  0  0  0
 49 51  1  0  0  0  0
 49 52  1  0  0  0  0
M  END
> <PUBCHEM_EXT_DATASOURCE_REGID>
bg2246sup1_I.complete.cml

> <PUBCHEM_EXT_DATASOURCE_URL>
http://wwmm.ch.cam.ac.uk/crystaleye

> <PUBCHEM_EXT_SUBSTANCE_URL>
http://wwmm.ch.cam.ac.uk/crystaleye/summary/acta/e/2009/03-00/data/bg2246/bg2246sup1_I/bg2246sup1_I.cif.summary.html

$$$$
