#P B3LYP/6-311+G(d,p) OPT FREQ 

toluene\cl basis2

0 2
C 
C 1 B1
C 1 B2 2 A1
C 1 B3 2 A2 3 D1
C 1 B4 2 A3 3 D2
C 1 B5 2 A4 3 D3
C 1 B6 2 A5 3 D4
H 1 B7 2 A6 3 D5
H 1 B8 2 A7 3 D6
H 1 B9 2 A8 3 D7
H 1 B10 2 A9 3 D8
H 1 B11 2 A10 3 D9
H 1 B12 2 A11 3 D10
H 1 B13 2 A12 3 D11
H 1 B14 2 A13 3 D12
Cl 1 B15 2 A14 3 D13

A10 144.83511
A11 116.03898
A12 95.691252
B1 1.4035307
A13 143.74010
B2 2.4213446
A14 65.691579
B3 2.8075511
B4 2.4212983
B5 1.4033734
B6 1.5021754
B7 2.1527580
B8 3.4044892
B10 3.4044121
B9 3.8822048
B11 2.1526219
B12 2.1478681
B13 2.1563519
B14 2.1565107
B15 4.2690617
D10 -146.91936
D11 167.08817
D12 158.85371
D13 40.142856
D1 0.3399170
D2 -0.0199566
D3 -0.0365301
A1 29.260565
D4 -179.05557
A2 59.385174
D5 179.65999
A3 89.507374
A4 118.77154
D6 0.2750870
D7 -1.9798230
A5 120.59648
D8 0.0698741
A6 26.063312
D9 0.1956953
A7 20.198896
A8 59.399178
A9 98.570729

