#P B3LYP/6-311+G(d,p) OPT FREQ 

OMe basis2

0 1
C 
C 1 B1
C 1 B2 2 A1
C 1 B3 2 A2 3 D1
C 1 B4 2 A3 3 D2
C 1 B5 2 A4 3 D3
H 1 B6 2 A5 3 D4
O 1 B7 2 A6 3 D5
H 1 B8 2 A7 3 D6
H 1 B9 2 A8 3 D7
H 1 B10 2 A9 3 D8
H 1 B11 2 A10 3 D9
C 1 B12 2 A11 3 D10
H 1 B13 2 A12 3 D11
H 1 B14 2 A13 3 D12
H 1 B15 2 A14 3 D13

A10 146.34808
A11 20.878048
A12 17.629870
B1 1.3990907
A13 32.860987
B2 2.4159211
A14 17.647846
B3 2.7748450
B4 2.4139369
B5 1.3846303
B6 1.0831591
B7 2.3373228
B8 3.4041042
B10 3.3954933
B9 3.8592070
B11 2.1369271
B12 3.6426882
B13 4.0225736
B14 4.3471400
B15 4.0215796
D10 -179.97111
D11 132.91297
D12 -179.97199
D13 -132.84276
D1 0.0013366
D2 -0.0032846
D3 0.0027671
A1 30.117773
D4 179.94645
A2 60.283958
D5 179.98072
A3 90.273099
A4 120.11221
D6 0.0127021
D7 -0.0014822
A5 118.28808
D8 -0.0077361
A6 31.663745
D9 0.0008362
A7 21.329084
A8 60.147375
A9 99.457475

