#P B3LYP/6-311+G(d,p) OPT FREQ 

fluorobz/cl complex basis

0 2
C 
C 1 B1
C 2 B2 1 A1
C 3 B3 2 A2 1 D1
C 4 B4 3 A3 2 D2
C 1 B5 2 A4 3 D3
H 6 B6 1 A5 2 D4
H 5 B7 4 A6 3 D5
F 4 B8 3 A7 2 D6
H 3 B9 2 A8 1 D7
H 2 B10 1 A9 6 D8
H 1 B11 2 A10 3 D9
Cl 1 B12 2 A11 3 D10

A5 119.57054
D6 179.98614
A6 120.15873
D7 179.28352
A7 119.14321
D8 -179.41338
A8 120.84478
D9 172.33613
A9 119.57100
A10 119.95787
A11 97.791122
B1 1.4081071
B2 1.3808882
B3 1.3964609
B4 1.3964594
B5 1.4081093
B6 1.0825489
B7 1.0816570
B8 1.8978924
D10 -102.14947
B9 1.0816581
B10 1.0825487
B11 1.0807238
B12 2.5845929
D1 -0.6688128
D2 -0.0753859
A1 120.40962
D3 1.3993606
A2 118.99717
D4 179.41344
A3 121.71251
A4 119.45977
D5 -179.97258

