#P B3LYP/6-311+G(d,p) OPT FREQ 

chlorobz/cl complex basis

0 2
C 
C 1 B1
C 1 B2 2 A1
C 1 B3 2 A2 3 D1
C 1 B4 2 A3 3 D2
C 1 B5 2 A4 3 D3
H 1 B6 2 A5 3 D4
H 1 B7 2 A6 3 D5
H 1 B8 2 A7 3 D6
Cl 1 B9 2 A8 3 D7
H 1 B10 2 A9 3 D8
H 1 B11 2 A10 3 D9
Cl 1 B12 2 A11 3 D10

A5 119.93241
D6 -0.5786744
A6 25.861474
D7 0.2212252
A7 20.708893
D8 0.6923492
A8 59.746646
D9 1.8354486
A9 98.786604
A10 145.34559
A11 97.793101
B1 1.4084194
B2 2.4197637
B3 2.7690939
B4 2.4197273
B5 1.4083351
B6 1.0806426
B7 2.1585275
B8 3.4081838
D10 -102.15861
B9 4.5124266
B10 3.4081597
B11 2.1583907
B12 2.5788989
D1 0.3613982
D2 0.7126329
A1 29.483849
D3 1.4093456
A2 59.746722
D4 172.20086
A3 90.008218
A4 119.48147
D5 -179.13485

