#P B3LYP/6-311+G(d,p) OPT FREQ 

phenol basis2

0 1
C 
C 1 B1
C 1 B2 2 A1
C 1 B3 2 A2 3 D1
C 1 B4 2 A3 3 D2
C 1 B5 2 A4 3 D3
H 1 B6 2 A5 3 D4
H 1 B7 2 A6 3 D5
H 1 B8 2 A7 3 D6
H 1 B9 2 A8 3 D7
O 1 B10 2 A9 3 D8
H 1 B11 2 A10 3 D9
H 1 B12 2 A11 3 D10

A5 120.15090
D6 -0.0001975
A6 25.757220
D7 0.0038706
A7 21.284560
D8 0.0034580
A8 60.662801
D9 0.0031480
A9 100.21753
A10 146.38727
A11 114.74923
B1 1.3897342
B2 2.4008339
B3 2.7818844
B4 2.4106599
B5 1.3909835
B6 1.0841647
B7 2.1508810
B8 3.3855286
D10 0.0150320
B9 3.8648035
B10 3.6766031
B11 2.1528536
B12 3.8307859
D1 0.0034689
D2 0.0052543
A1 30.413107
D3 0.0054333
A2 60.332800
D4 -179.99908
A3 90.423638
A4 120.52956
D5 -179.98294

