#P B3LYP/6-311+G(d,p) OPT FREQ 

nitrobz/cl basis

0 2
C 
C 1 B1
C 2 B2 1 A1
C 3 B3 2 A2 1 D1
C 4 B4 3 A3 2 D2
C 1 B5 2 A4 3 D3
H 6 B6 1 A5 2 D4
H 5 B7 4 A6 3 D5
H 4 B8 3 A7 2 D6
H 3 B9 2 A8 1 D7
N 2 B10 1 A9 6 D8
O 11 B11 2 A10 1 D9
O 11 B12 2 A11 1 D10
H 1 B13 2 A12 3 D11
Cl 1 B14 2 A13 3 D12

A10 117.30516
A11 117.42009
A12 120.01119
B1 1.3803412
A13 113.31366
B2 1.3917908
B3 1.3928379
B4 1.3847554
B5 1.4052006
B6 1.0810276
B7 1.0825378
B8 1.0825952
B10 1.4820095
B9 1.0810256
B11 1.2211383
B12 1.2200345
B13 1.0802879
B14 3.0750317
D10 1.0387668
D11 179.98171
D12 -64.604576
D1 -0.2282843
D2 0.1677228
D3 -0.4404808
A1 122.15337
D4 173.50457
A2 119.13928
D5 179.89909
A3 120.09606
A4 118.47791
D6 -179.92750
D7 179.70244
A5 119.51552
D8 179.80840
A6 120.46304
D9 -179.23693
A7 119.60782
A8 119.09880
A9 118.99303

