#P B3LYP/6-311+G(d,p) OPT FREQ 

phenol/cl comlex basis

0 2
C 
C 1 B1
C 1 B2 2 A1
C 1 B3 2 A2 3 D1
C 1 B4 2 A3 3 D2
C 1 B5 2 A4 3 D3
H 1 B6 2 A5 3 D4
H 1 B7 2 A6 3 D5
H 1 B8 2 A7 3 D6
H 1 B9 2 A8 3 D7
O 1 B10 2 A9 3 D8
H 1 B11 2 A10 3 D9
Cl 1 B12 2 A11 3 D10
H 1 B13 2 A12 3 D11

A10 146.32574
A11 55.853480
A12 114.46404
B1 1.4098578
B2 2.4320851
B3 2.7985224
B4 2.4038285
B5 1.3773245
B6 1.0824060
B7 2.1623370
B8 3.4107668
B10 3.6508651
B9 3.8803325
B11 2.1432587
B12 3.0796119
B13 3.8148556
D10 105.43613
D11 2.4835136
D1 0.9097143
D2 1.5600809
D3 1.9612257
A1 30.466610
D4 -179.11364
A2 59.873841
D5 -169.50831
A3 89.988775
A4 120.46755
D6 -0.6604589
D7 0.9342530
A5 119.39457
D8 1.7727868
A6 25.630988
D9 2.8641993
A7 21.257486
A8 60.494664
A9 99.867850

