#P B3LYP/6-311+G(d,p) OPT FREQ 

OMe\Cl complexbasis

0 2
C 
C 1 B1
C 1 B2 2 A1
C 1 B3 2 A2 3 D1
C 1 B4 2 A3 3 D2
C 1 B5 2 A4 3 D3
Cl 1 B6 2 A5 3 D4
H 1 B7 2 A6 3 D5
H 1 B8 2 A7 3 D6
H 1 B9 2 A8 3 D7
O 1 B10 2 A9 3 D8
H 1 B11 2 A10 3 D9
H 1 B12 2 A11 3 D10
C 1 B13 2 A12 3 D11
H 1 B14 2 A13 3 D12
H 1 B15 2 A14 3 D13
H 1 B16 2 A15 3 D14

A10 99.045072
A11 144.96646
A12 71.802206
B1 1.4119811
A13 79.044343
B2 2.4159054
A14 66.483641
B3 2.7931929
A15 79.216123
B4 2.4265547
B5 1.4080185
B6 2.5728877
B7 1.0798287
B8 2.1601115
B10 4.1327349
B9 3.4106806
B11 3.4027859
B12 2.1546828
B13 5.0479755
B14 5.1332566
B15 6.0082439
B16 5.0980487
D10 2.3784236
D11 -0.2185353
D12 10.067111
D13 -0.4409063
D14 -10.451261
D1 0.2553441
D2 0.8123715
D3 1.7481360
A1 29.300294
D4 -101.62845
A2 59.618626
D5 171.46414
A3 89.787934
A4 118.96412
D6 -179.04371
D7 -0.6865976
A5 100.86713
D8 -0.0005856
A6 120.17446
D9 0.7416372
A7 25.890369
A8 20.774914
A9 58.073884

