#P B3LYP/6-311+G(d,p) OPT FREQ 

bromobz basis2

0 1
C 
C 1 B1
C 1 B2 2 A1
C 1 B3 2 A2 3 D1
C 1 B4 2 A3 3 D2
C 1 B5 2 A4 3 D3
H 1 B6 2 A5 3 D4
H 1 B7 2 A6 3 D5
H 1 B8 2 A7 3 D6
Br 1 B9 2 A8 3 D7
H 1 B10 2 A9 3 D8
H 1 B11 2 A10 3 D9

A5 120.12599
D6 -0.0137043
A6 25.815152
D7 -0.0201667
A7 20.742992
D8 -0.0084736
A8 59.874686
D9 -0.0072196
A9 99.006236
A10 145.56475
B1 1.3906465
B2 2.4149262
B3 2.7695882
B4 2.4149310
B5 1.3906693
B6 1.0835146
B7 2.1508606
B8 3.3985781
B9 4.6834450
B10 3.3985835
B11 2.1508879
D1 0.0031558
D2 -0.0034015
A1 29.775010
D3 -0.0115839
A2 59.874623
D4 -179.95088
A3 89.974427
A4 119.75079
D5 179.98634

