%Mem=900MB
#T B3LYP/6-31G(d,p) 5D 7F SCF=(Conver=10) TrackIO GFInput MaxDisk=16GB

HCO-L-Ala-NH2 B3LYP/6-31(d,p) single point calculation close to the polyproline II minimum

0 1
H1    
C2         1 rC2H1        
N3         2 rN3C2             1 aN3C2H1            
O4         2 rO4C2             3 aO4C2N3                 1 pO4C2N3H1                
C5         3 rC5N3             2 aC5N3C2                 1 dC5N3C2H1                
H6         3 rH6N3             2 aH6N3C2                 5 pH6N3C2C5                
C7         5 rC7C5             3 aC7C5N3                 2 dC7C5N3C2                
C8         5 rC8C5             3 aC8C5N3                 7 pC8C5N3C7                
H9         5 rH9C5             3 aH9C5N3                 7 pH9C5N3C7                
H10        8 rH10C8            5 aH10C8C5                3 dH10C8C5N3               
H11        8 rH11C8            5 aH11C8C5               10 pH11C8C5H10              
H12        8 rH12C8            5 aH12C8C5               10 pH12C8C5H10              
N13        7 rN13C7            5 aN13C7C5                3 dN13C7C5N3               
O14        7 rO14C7            5 aO14C7C5               13 pO14C7C5N13              
H15       13 rH15N13           7 aH15N13C7               5 dH15N13C7C5              
H16       13 rH16N13           7 aH16N13C7              15 pH16N13C7H15             

rC2H1         1.0882942483
rN3C2         1.3402838218
rO4C2         1.1952884172
rC5N3         1.4583595563
rH6N3         0.9915590043
rC7C5         1.5369448414
rC8C5         1.5171170904
rH9C5         1.0806825021
rH10C8        1.0813405229
rH11C8        1.0796907222
rH12C8        1.0821952391
rN13C7        1.3456530125
rO14C7        1.1950240612
rH15N13       0.9913391977
rH16N13       0.9924031739
aN3C2H1             112.9069200270
aO4C2N3             125.3633262392
aC5N3C2             124.6032697637
aH6N3C2             116.9661210883
aC7C5N3             111.3033779730
aC8C5N3             109.7565292177
aH9C5N3             106.6965809718
aH10C8C5            111.0344765292
aH11C8C5            110.2002824137
aH12C8C5            109.8173443453
aN13C7C5            115.4028930236
aO14C7C5            121.4775059885
aH15N13C7           117.0797453204
aH16N13C7           120.3305353534
pO4C2N3H1                  178.6303631650
dC5N3C2H1                  176.2028473492
pH6N3C2C5                 -167.2695102690
dC7C5N3C2                  -75.0000000000
pC8C5N3C7                 -123.9390960817
pH9C5N3C7                  117.2528576029
dH10C8C5N3                  62.5169520742
pH11C8C5H10                118.9031989884
pH12C8C5H10               -121.1462925406
dN13C7C5N3                  75.0000000000
pO14C7C5N13                179.1710057696
dH15N13C7C5               -171.9667509154
pH16N13C7H15               158.4498839637


